86
chassi-H2-hand
C 1.78054046 -0.54610781 0.82057627
C 0.54100213 -1.18192450 0.99903020
C -0.70008313 -0.45630767 0.73828499
C -0.65450088 0.87571914 0.17199501
C 0.64087128 1.56007610 0.12173915
C 1.81979178 0.87011650 0.46470766
C 0.72460954 2.91404962 -0.23506063
C 1.95087691 3.58086902 -0.25553065
C 3.11768886 2.89378602 0.10194505
C 3.04279391 1.56021574 0.46575985
C 2.95814525 -1.29645535 0.97593382
C 2.92405412 -2.63499736 1.33392839
C 1.68649042 -3.26307486 1.53447650
C 0.50869265 -2.53437863 1.36306706
C -1.91038789 -1.04107756 0.97311426
C -3.13544391 -0.44746609 0.53558073
C -3.09358049 0.81500599 -0.13995444
C -1.81357600 1.45878940 -0.26529364
C -4.33306777 -1.11987425 0.69928936
C -5.52767931 -0.60162184 0.16022177
C -5.50049756 0.65611287 -0.51614401
C -4.27180884 1.34833335 -0.64272373
C -6.73356639 -1.32726741 0.25180983
C -7.90279020 -0.83664004 -0.30577350
C -7.89306545 0.44148425 -0.94815781
C -6.70979160 1.15808206 -1.04845183
C -9.12992166 -1.57726389 -0.26220872
C -10.30349235 -1.07472887 -0.75264998
C -10.31410780 0.26044251 -1.31298960
C -9.13968941 0.95119727 -1.44232369
C 2.04929013 4.93621855 -0.62097120
C 2.19881676 6.09981119 -0.93068559
C 2.39054943 7.46818960 -1.29004017
C 1.62156130 -4.62625733 1.87160262
C 1.54593712 -5.80852905 2.13511865
C 1.44889701 -7.19988607 2.43511861
C -11.54267541 -1.85335542 -0.72949238
C -12.75342169 -1.27225510 -1.15195520
C -12.78301624 0.11358560 -1.61278106
C -11.59281718 0.85967799 -1.69383642
C -13.99715744 0.72900201 -1.96037312
C -14.04917636 2.05731749 -2.34561638
C -12.86629031 2.81153753 -2.39582695
C -11.65059944 2.20418773 -2.08891467
C -11.53474430 -3.18784370 -0.29616092
C -12.70600516 -3.94616180 -0.26444065
C -13.91436165 -3.35759306 -0.67061949
C -13.92642188 -2.04371970 -1.10937415
C -12.94415155 4.17463591 -2.73176266
C -13.07160717 5.34741128 -3.01607016
C -13.24347785 6.72167898 -3.35954725
C -12.69466670 -5.29114346 0.15273973
C -12.71990634 -6.45282517 0.50408400
C -12.76828106 -7.81662649 0.91721406
H -0.17495773 3.47179101 -0.49863863
H 4.07857238 3.41106109 0.09324301
H 3.95868560 1.04533765 0.76123180
H 3.92793692 -0.82795849 0.80335955
H 3.84413478 -3.20177397 1.45491018
H -0.44131132 -3.04764866 1.50668380
H -1.99165537 -2.00795200 1.47851930
H -1.80679068 2.44518883 -0.73109227
H -4.36095998 -2.07232322 1.22711666
H -4.26173627 2.30781363 -1.15897911
H -6.73245798 -2.28860651 0.76378942
H -6.69540857 2.12831247 -1.54498289
H -9.08485745 -2.57322218 0.18110132
H -9.11194198 1.93616837 -1.91212820
H 2.45828108 8.11899653 -0.39805248
H 1.56408919 7.85549387 -1.91131992
H 3.32319523 7.61269704 -1.86697862
H 0.96356078 -7.37958886 3.41174424
H 2.44051590 -7.68676762 2.47325658
H 0.85283624 -7.74194613 1.67745522
H -14.92812555 0.16023823 -1.91785745
H -14.99735328 2.52500793 -2.60004194
H -10.74140940 2.80501442 -2.14449654
H -10.60286651 -3.65841045 0.02105367
H -14.83287523 -3.94075520 -0.64325009
H -14.87547853 -1.61208112 -1.42720122
H -12.36959261 7.33624681 -3.07766598
H -14.12443190 7.16292742 -2.85592205
H -13.39484388 6.85811716 -4.44683769
H -11.93438543 -8.07857382 1.59219761
H -12.71439559 -8.50968068 0.05790745
H -13.70616254 -8.04655413 1.45734236
