54
DC-align
C -1.6806 -2.3138 0.1815
C -1.6313 -3.6698 0.4481
C -2.8470 -4.3838 0.5682
C -4.0532 -3.8048 0.4243
C -4.1614 -2.4138 0.1652
C -5.3310 -1.6658 0.0139
C -5.2618 -0.3108 -0.1986
C -4.0404 0.3962 -0.2610
C -2.8489 -0.3028 -0.0423
C -2.9485 -1.7138 0.1060
C -0.6798 -1.2258 0.0249
C -1.4206 0.0182 -0.0001
C -0.7183 1.2232 0.0287
C -1.1672 2.6222 0.1078
C -2.3596 3.2902 0.3596
C -2.3724 4.6972 0.3762
C -1.2521 5.4543 0.1857
C -0.0002 4.8142 0.0001
C -0.0002 3.4052 0.0001
H -0.7885 -4.1168 0.5502
H -2.8081 -5.3248 0.7593
H -4.8488 -4.3358 0.4990
H -6.1871 -2.1008 0.0599
H -6.0796 0.1802 -0.3111
H -4.0265 1.3372 -0.4498
H -3.1675 2.7972 0.5202
H -3.2063 5.1443 0.5299
H -1.3099 6.4133 0.1758
C 0.6803 -1.2258 -0.0250
C 1.6810 -2.3138 -0.1816
C 1.6318 -3.6698 -0.4483
C 2.8465 -4.3838 -0.5679
C 4.0536 -3.8048 -0.4244
C 4.1618 -2.4138 -0.1653
C 5.3305 -1.6658 -0.0136
C 5.2613 -0.3108 0.1989
C 4.0399 0.3962 0.2613
C 2.8493 -0.3028 0.0421
C 2.9489 -1.7138 -0.1061
C 1.4210 0.0182 -0.0001
C 0.7178 1.2232 -0.0284
C 1.2516 5.4543 -0.1854
C 2.3724 4.6972 -0.3773
C 2.3600 3.2902 -0.3597
C 1.1676 2.6222 -0.1079
H 3.1670 2.7972 -0.5199
H 3.2068 5.1443 -0.5301
H 1.3103 6.4133 -0.1760
H 4.0269 1.3372 0.4496
H 6.0791 0.1802 0.3114
H 6.1866 -2.1008 -0.0596
H 4.8483 -4.3358 -0.4987
H 2.8076 -5.3248 -0.7590
H 0.7890 -4.1168 -0.5504
