354
Pd110_DC
Pd 0.0000 0.0000 10.0000
Pd 3.5970 0.0000 10.0000
Pd 7.1940 0.0000 10.0000
Pd 10.7910 0.0000 10.0000
Pd 14.3880 0.0000 10.0000
Pd 17.9850 0.0000 10.0000
Pd 21.5820 0.0000 10.0000
Pd 25.1790 0.0000 10.0000
Pd 28.7760 0.0000 10.0000
Pd 32.3730 0.0000 10.0000
Pd 0.0000 2.5435 10.0000
Pd 3.5970 2.5435 10.0000
Pd 7.1940 2.5435 10.0000
Pd 10.7910 2.5435 10.0000
Pd 14.3880 2.5435 10.0000
Pd 17.9850 2.5435 10.0000
Pd 21.5820 2.5435 10.0000
Pd 25.1790 2.5435 10.0000
Pd 28.7760 2.5435 10.0000
Pd 32.3730 2.5435 10.0000
Pd 0.0000 5.0869 10.0000
Pd 3.5970 5.0869 10.0000
Pd 7.1940 5.0869 10.0000
Pd 10.7910 5.0869 10.0000
Pd 14.3880 5.0869 10.0000
Pd 17.9850 5.0869 10.0000
Pd 21.5820 5.0869 10.0000
Pd 25.1790 5.0869 10.0000
Pd 28.7760 5.0869 10.0000
Pd 32.3730 5.0869 10.0000
Pd 0.0000 7.6304 10.0000
Pd 3.5970 7.6304 10.0000
Pd 7.1940 7.6304 10.0000
Pd 10.7910 7.6304 10.0000
Pd 14.3880 7.6304 10.0000
Pd 17.9850 7.6304 10.0000
Pd 21.5820 7.6304 10.0000
Pd 25.1790 7.6304 10.0000
Pd 28.7760 7.6304 10.0000
Pd 32.3730 7.6304 10.0000
Pd 0.0000 10.1739 10.0000
Pd 3.5970 10.1739 10.0000
Pd 7.1940 10.1739 10.0000
Pd 10.7910 10.1739 10.0000
Pd 14.3880 10.1739 10.0000
Pd 17.9850 10.1739 10.0000
Pd 21.5820 10.1739 10.0000
Pd 25.1790 10.1739 10.0000
Pd 28.7760 10.1739 10.0000
Pd 32.3730 10.1739 10.0000
Pd 0.0000 12.7173 10.0000
Pd 3.5970 12.7173 10.0000
Pd 7.1940 12.7173 10.0000
Pd 10.7910 12.7173 10.0000
Pd 14.3880 12.7173 10.0000
Pd 17.9850 12.7173 10.0000
Pd 21.5820 12.7173 10.0000
Pd 25.1790 12.7173 10.0000
Pd 28.7760 12.7173 10.0000
Pd 32.3730 12.7173 10.0000
Pd 0.0000 15.2608 10.0000
Pd 3.5970 15.2608 10.0000
Pd 7.1940 15.2608 10.0000
Pd 10.7910 15.2608 10.0000
Pd 14.3880 15.2608 10.0000
Pd 17.9850 15.2608 10.0000
Pd 21.5820 15.2608 10.0000
Pd 25.1790 15.2608 10.0000
Pd 28.7760 15.2608 10.0000
Pd 32.3730 15.2608 10.0000
Pd 0.0000 17.8042 10.0000
Pd 3.5970 17.8042 10.0000
Pd 7.1940 17.8042 10.0000
Pd 10.7910 17.8042 10.0000
Pd 14.3880 17.8042 10.0000
Pd 17.9850 17.8042 10.0000
Pd 21.5820 17.8042 10.0000
Pd 25.1790 17.8042 10.0000
Pd 28.7760 17.8042 10.0000
Pd 32.3730 17.8042 10.0000
Pd 0.0000 20.3477 10.0000
Pd 3.5970 20.3477 10.0000
Pd 7.1940 20.3477 10.0000
Pd 10.7910 20.3477 10.0000
Pd 14.3880 20.3477 10.0000
Pd 17.9850 20.3477 10.0000
Pd 21.5820 20.3477 10.0000
Pd 25.1790 20.3477 10.0000
Pd 28.7760 20.3477 10.0000
Pd 32.3730 20.3477 10.0000
Pd 0.0000 22.8912 10.0000
Pd 3.5970 22.8912 10.0000
Pd 7.1940 22.8912 10.0000
Pd 10.7910 22.8912 10.0000
Pd 14.3880 22.8912 10.0000
Pd 17.9850 22.8912 10.0000
Pd 21.5820 22.8912 10.0000
Pd 25.1790 22.8912 10.0000
Pd 28.7760 22.8912 10.0000
Pd 32.3730 22.8912 10.0000
Pd 1.7985 1.2717 11.2717
Pd 5.3955 1.2717 11.2717
Pd 8.9925 1.2717 11.2717
Pd 12.5895 1.2717 11.2717
Pd 16.1865 1.2717 11.2717
Pd 19.7835 1.2717 11.2717
Pd 23.3805 1.2717 11.2717
Pd 26.9775 1.2717 11.2717
Pd 30.5745 1.2717 11.2717
Pd 34.1715 1.2717 11.2717
Pd 1.7985 3.8152 11.2717
Pd 5.3955 3.8152 11.2717
Pd 8.9925 3.8152 11.2717
Pd 12.5895 3.8152 11.2717
Pd 16.1865 3.8152 11.2717
Pd 19.7835 3.8152 11.2717
Pd 23.3805 3.8152 11.2717
Pd 26.9775 3.8152 11.2717
Pd 30.5745 3.8152 11.2717
Pd 34.1715 3.8152 11.2717
Pd 1.7985 6.3587 11.2717
Pd 5.3955 6.3587 11.2717
Pd 8.9925 6.3587 11.2717
Pd 12.5895 6.3587 11.2717
Pd 16.1865 6.3587 11.2717
Pd 19.7835 6.3587 11.2717
Pd 23.3805 6.3587 11.2717
Pd 26.9775 6.3587 11.2717
Pd 30.5745 6.3587 11.2717
Pd 34.1715 6.3587 11.2717
Pd 1.7985 8.9021 11.2717
Pd 5.3955 8.9021 11.2717
Pd 8.9925 8.9021 11.2717
Pd 12.5895 8.9021 11.2717
Pd 16.1865 8.9021 11.2717
Pd 19.7835 8.9021 11.2717
Pd 23.3805 8.9021 11.2717
Pd 26.9775 8.9021 11.2717
Pd 30.5745 8.9021 11.2717
Pd 34.1715 8.9021 11.2717
Pd 1.7985 11.4456 11.2717
Pd 5.3955 11.4456 11.2717
Pd 8.9925 11.4456 11.2717
Pd 12.5895 11.4456 11.2717
Pd 16.1865 11.4456 11.2717
Pd 19.7835 11.4456 11.2717
Pd 23.3805 11.4456 11.2717
Pd 26.9775 11.4456 11.2717
Pd 30.5745 11.4456 11.2717
Pd 34.1715 11.4456 11.2717
Pd 1.7985 13.9890 11.2717
Pd 5.3955 13.9890 11.2717
Pd 8.9925 13.9890 11.2717
Pd 12.5895 13.9890 11.2717
Pd 16.1865 13.9890 11.2717
Pd 19.7835 13.9890 11.2717
Pd 23.3805 13.9890 11.2717
Pd 26.9775 13.9890 11.2717
Pd 30.5745 13.9890 11.2717
Pd 34.1715 13.9890 11.2717
Pd 1.7985 16.5325 11.2717
Pd 5.3955 16.5325 11.2717
Pd 8.9925 16.5325 11.2717
Pd 12.5895 16.5325 11.2717
Pd 16.1865 16.5325 11.2717
Pd 19.7835 16.5325 11.2717
Pd 23.3805 16.5325 11.2717
Pd 26.9775 16.5325 11.2717
Pd 30.5745 16.5325 11.2717
Pd 34.1715 16.5325 11.2717
Pd 1.7985 19.0760 11.2717
Pd 5.3955 19.0760 11.2717
Pd 8.9925 19.0760 11.2717
Pd 12.5895 19.0760 11.2717
Pd 16.1865 19.0760 11.2717
Pd 19.7835 19.0760 11.2717
Pd 23.3805 19.0760 11.2717
Pd 26.9775 19.0760 11.2717
Pd 30.5745 19.0760 11.2717
Pd 34.1715 19.0760 11.2717
Pd 1.7985 21.6194 11.2717
Pd 5.3955 21.6194 11.2717
Pd 8.9925 21.6194 11.2717
Pd 12.5895 21.6194 11.2717
Pd 16.1865 21.6194 11.2717
Pd 19.7835 21.6194 11.2717
Pd 23.3805 21.6194 11.2717
Pd 26.9775 21.6194 11.2717
Pd 30.5745 21.6194 11.2717
Pd 34.1715 21.6194 11.2717
Pd 1.7985 24.1629 11.2717
Pd 5.3955 24.1629 11.2717
Pd 8.9925 24.1629 11.2717
Pd 12.5895 24.1629 11.2717
Pd 16.1865 24.1629 11.2717
Pd 19.7835 24.1629 11.2717
Pd 23.3805 24.1629 11.2717
Pd 26.9775 24.1629 11.2717
Pd 30.5745 24.1629 11.2717
Pd 34.1715 24.1629 11.2717
Pd 0.0000 0.0000 12.5435
Pd 3.5970 0.0000 12.5435
Pd 7.1940 0.0000 12.5435
Pd 10.7910 0.0000 12.5435
Pd 14.3880 0.0000 12.5435
Pd 17.9850 0.0000 12.5435
Pd 21.5820 0.0000 12.5435
Pd 25.1790 0.0000 12.5435
Pd 28.7760 0.0000 12.5435
Pd 32.3730 0.0000 12.5435
Pd 0.0000 2.5435 12.5435
Pd 3.5970 2.5435 12.5435
Pd 7.1940 2.5435 12.5435
Pd 10.7910 2.5435 12.5435
Pd 14.3880 2.5435 12.5435
Pd 17.9850 2.5435 12.5435
Pd 21.5820 2.5435 12.5435
Pd 25.1790 2.5435 12.5435
Pd 28.7760 2.5435 12.5435
Pd 32.3730 2.5435 12.5435
Pd 0.0000 5.0869 12.5435
Pd 3.5970 5.0869 12.5435
Pd 7.1940 5.0869 12.5435
Pd 10.7910 5.0869 12.5435
Pd 14.3880 5.0869 12.5435
Pd 17.9850 5.0869 12.5435
Pd 21.5820 5.0869 12.5435
Pd 25.1790 5.0869 12.5435
Pd 28.7760 5.0869 12.5435
Pd 32.3730 5.0869 12.5435
Pd 0.0000 7.6304 12.5435
Pd 3.5970 7.6304 12.5435
Pd 7.1940 7.6304 12.5435
Pd 10.7910 7.6304 12.5435
Pd 14.3880 7.6304 12.5435
Pd 17.9850 7.6304 12.5435
Pd 21.5820 7.6304 12.5435
Pd 25.1790 7.6304 12.5435
Pd 28.7760 7.6304 12.5435
Pd 32.3730 7.6304 12.5435
Pd 0.0000 10.1739 12.5435
Pd 3.5970 10.1739 12.5435
Pd 7.1940 10.1739 12.5435
Pd 10.7910 10.1739 12.5435
Pd 14.3880 10.1739 12.5435
Pd 17.9850 10.1739 12.5435
Pd 21.5820 10.1739 12.5435
Pd 25.1790 10.1739 12.5435
Pd 28.7760 10.1739 12.5435
Pd 32.3730 10.1739 12.5435
Pd 0.0000 12.7173 12.5435
Pd 3.5970 12.7173 12.5435
Pd 7.1940 12.7173 12.5435
Pd 10.7910 12.7173 12.5435
Pd 14.3880 12.7173 12.5435
Pd 17.9850 12.7173 12.5435
Pd 21.5820 12.7173 12.5435
Pd 25.1790 12.7173 12.5435
Pd 28.7760 12.7173 12.5435
Pd 32.3730 12.7173 12.5435
Pd 0.0000 15.2608 12.5435
Pd 3.5970 15.2608 12.5435
Pd 7.1940 15.2608 12.5435
Pd 10.7910 15.2608 12.5435
Pd 14.3880 15.2608 12.5435
Pd 17.9850 15.2608 12.5435
Pd 21.5820 15.2608 12.5435
Pd 25.1790 15.2608 12.5435
Pd 28.7760 15.2608 12.5435
Pd 32.3730 15.2608 12.5435
Pd 0.0000 17.8042 12.5435
Pd 3.5970 17.8042 12.5435
Pd 7.1940 17.8042 12.5435
Pd 10.7910 17.8042 12.5435
Pd 14.3880 17.8042 12.5435
Pd 17.9850 17.8042 12.5435
Pd 21.5820 17.8042 12.5435
Pd 25.1790 17.8042 12.5435
Pd 28.7760 17.8042 12.5435
Pd 32.3730 17.8042 12.5435
Pd 0.0000 20.3477 12.5435
Pd 3.5970 20.3477 12.5435
Pd 7.1940 20.3477 12.5435
Pd 10.7910 20.3477 12.5435
Pd 14.3880 20.3477 12.5435
Pd 17.9850 20.3477 12.5435
Pd 21.5820 20.3477 12.5435
Pd 25.1790 20.3477 12.5435
Pd 28.7760 20.3477 12.5435
Pd 32.3730 20.3477 12.5435
Pd 0.0000 22.8912 12.5435
Pd 3.5970 22.8912 12.5435
Pd 7.1940 22.8912 12.5435
Pd 10.7910 22.8912 12.5435
Pd 14.3880 22.8912 12.5435
Pd 17.9850 22.8912 12.5435
Pd 21.5820 22.8912 12.5435
Pd 25.1790 22.8912 12.5435
Pd 28.7760 22.8912 12.5435
Pd 32.3730 22.8912 12.5435
C 15.1054 9.5557 1.4532
C 15.1547 8.1997 1.7199
C 13.9390 7.4857 1.8399
C 12.7328 8.0647 1.6960
C 12.6246 9.4557 1.4369
C 11.4550 10.2037 1.2856
C 11.5242 11.5587 1.0731
C 12.7456 12.2657 1.0108
C 13.9371 11.5667 1.2294
C 13.8375 10.1557 1.3777
C 16.1062 10.6437 1.2966
C 15.3654 11.8877 1.2716
C 16.0677 13.0927 1.3004
C 15.6188 14.4917 1.3795
C 14.4264 15.1597 1.6313
C 14.4136 16.5667 1.6479
C 15.5339 17.3237 1.4574
C 16.7858 16.6837 1.2719
C 16.7858 15.2747 1.2719
H 15.9975 7.7527 1.8219
H 13.9779 6.5446 2.0310
H 11.9372 7.5337 1.7707
H 10.5989 9.7687 1.3316
H 10.7064 12.0497 0.9606
H 12.7595 13.2067 0.8219
H 13.6185 14.6667 1.7920
H 13.5797 17.0137 1.8016
H 15.4761 18.2828 1.4476
C 17.4663 10.6437 1.2467
C 18.4670 9.5557 1.0901
C 18.4178 8.1997 0.8234
C 19.6325 7.4857 0.7039
C 20.8396 8.0647 0.8473
C 20.9478 9.4557 1.1064
C 22.1165 10.2037 1.2582
C 22.0473 11.5587 1.4706
C 20.8259 12.2657 1.5330
C 19.6353 11.5667 1.3139
C 19.7349 10.1557 1.1656
C 18.2070 11.8877 1.2716
C 17.5038 13.0927 1.2433
C 18.0376 17.3237 1.0863
C 19.1584 16.5667 0.8945
C 19.1460 15.1597 0.9120
C 17.9536 14.4917 1.1638
H 19.9530 14.6667 0.7518
H 19.9928 17.0137 0.7417
H 18.0963 18.2828 1.0957
H 20.8129 13.2067 1.7214
H 22.8651 12.0497 1.5831
H 22.9726 9.7687 1.2121
H 21.6343 7.5337 0.7731
H 19.5936 6.5446 0.5127
H 17.5750 7.7527 0.7214
