126
cb7 - CCDC LIRTIL
O          7.98120        6.31154        9.61879
O          8.61599        6.76251       13.09358
O         11.49855        8.80193       14.33314
O         13.90095       10.72458       12.34555
O         13.99330       11.06281        8.73823
O         11.87713        9.77030        5.98585
O          9.11177        7.67250        6.36255
O         10.95818        1.23211        9.08235
O         12.14452        1.86628       12.24244
O         15.15198        3.99227       13.39185
O         17.59996        6.02163       11.70411
O         17.89470        6.46052        8.34002
O         15.59813        4.92642        5.91025
O         12.57497        2.70581        6.30246
N          8.02008        4.45935        8.21824
N          7.84747        4.14931       10.41616
N          8.60080        4.49559       12.69031
N          9.98130        5.30290       14.22813
N         11.85458        6.61554       15.01665
N         13.62133        7.95234       14.74938
N         15.25388        9.35960       13.64014
N         16.07429       10.18101       11.75693
N         16.15539       10.44071        9.33697
N         15.47332       10.09041        7.24944
N         14.05081        9.10996        5.56043
N         12.40444        7.89999        4.72858
N         10.43957        6.47260        4.91425
N          9.04994        5.35525        6.22307
N          9.28497        2.41187        8.01961
N          9.09040        2.04949       10.19128
N          9.94256        2.48234       12.44044
N         11.39603        3.35810       13.84257
N         13.30388        4.69691       14.57732
N         15.08680        6.01559       14.49255
N         16.67977        7.40272       13.32068
N         17.65287        8.34089       11.55735
N         17.77611        8.63080        9.14372
N         16.99213        8.18587        7.12102
N         15.56347        7.19133        5.45416
N         13.86471        5.94110        4.75768
N         11.92309        4.54189        5.05436
N         10.34911        3.30576        6.03392
C          7.95609        5.08950        9.43502
C          7.47494        4.46539       11.77559
H          6.82162        3.79296       12.09505
H          7.02959        5.34921       11.78824
C          9.00858        5.63911       13.30961
C         10.46108        6.23906       15.21686
H         10.36263        5.83440       16.11513
H          9.89933        7.05241       15.18839
C         12.24077        7.89194       14.66335
C         14.34251        9.21666       14.74875
H         13.68806        9.95955       14.72344
H         14.85180        9.29518       15.59641
C         14.96505       10.13067       12.55051
C         16.18319       11.08697       10.62745
H         15.43947       11.73926       10.67173
H         17.02917       11.59431       10.70968
C         15.09434       10.57963        8.46716
C         14.69509       10.29777        6.06650
H         15.28373       10.66620        5.35801
H         13.99993       10.97825        6.25944
C         12.70607        8.99319        5.47820
C         11.04915        7.60807        4.25414
H         10.47954        8.40532        4.39964
H         11.08033        7.43292        3.27996
C          9.50723        6.60145        5.88938
C          7.81022        5.15392        6.97426
H          7.39801        6.03572        7.16404
H          7.17579        4.63652        6.42075
C          8.01841        3.02994        8.34065
H          7.25943        2.61118        7.84091
C          7.90008        2.80244        9.87783
H          7.07351        2.28906       10.10556
C          9.12656        3.29770       13.31594
H          8.40710        2.76419       13.76191
C         10.14204        3.86544       14.34073
H          9.95489        3.54131       15.26747
C         12.97088        5.78809       15.46041
H         12.84101        5.47201       16.39980
C         14.17908        6.73634       15.34970
H         14.58597        6.92155       16.24481
C         16.59756        8.83011       13.60376
H         17.11314        9.07372       14.42613
C         17.20521        9.47033       12.33227
H         17.95748       10.09041       12.55367
C         17.33591        9.91727        8.67276
H         18.08262       10.58366        8.67592
C         16.85035        9.63340        7.24311
H         17.39927       10.11658        6.55992
C         14.73828        8.14158        4.71277
H         15.23879        8.57644        3.96315
C         13.56339        7.24166        4.20037
H         13.53915        7.21146        3.20089
C         10.67464        5.08547        4.54829
H         10.57770        4.94052        3.56462
C          9.60381        4.32849        5.34535
H          8.90468        3.93792        4.74440
C          9.88131        1.84414        9.10291
C          9.36088        1.51396       11.51623
H          9.98062        0.74692       11.42767
H          8.51431        1.17574       11.90211
C         11.25032        2.51254       12.77191
C         12.62670        3.42252       14.62855
H         12.40784        3.21919       15.57427
H         13.24531        2.72191       14.30910
C         14.56949        4.82576       14.07820
C         16.47526        6.38804       14.31859
H         16.83087        6.71419       15.18207
H         16.99332        5.58274       14.06239
C         17.33333        7.14100       12.14249
C         18.49390        8.42948       10.38390
H         19.12992        9.17841       10.50409
H         19.02423        7.59599       10.31115
C         17.58002        7.64431        8.22046
C         16.91611        7.48325        5.84510
H         17.34363        8.03488        5.14609
H         17.42201        6.63366        5.91468
C         15.05191        5.92097        5.42443
C         13.17803        4.72912        4.36484
H         13.00753        4.75731        3.38750
H         13.76505        3.95402        4.54513
C         11.70480        3.45474        5.84541
C          9.75758        2.16626        6.66430
H         10.42374        1.43343        6.68644
H          8.99460        1.85823        6.11078
