54
TONLEN
C       0.600001   -3.926037   14.015859
C       0.340000   -5.282049   13.938860
C       0.784001   -5.996056   12.800871
C       1.459002   -5.417050   11.790882
C       1.739002   -4.026038   11.811881
C       2.404003   -3.278031   10.837891
C       2.562003   -1.923018   10.995890
C       2.064002   -1.216011   12.112878
C       1.329002   -1.915018   13.075869
C       1.242001   -3.326031   12.919870
C       0.286000   -2.838026   14.978850
C       0.644001   -1.594015   14.329856
C       0.300000   -0.389004   14.942850
C       0.433001    1.010009   14.506854
C       0.749001    1.678016   13.329866
C       0.740001    3.085029   13.310866
C       0.402000    3.842036   14.395855
C       0.000000    3.202030   15.595843
C       0.000000    1.793017   15.595843
H      -0.133000   -5.729053   14.643853
H       0.596001   -6.937065   12.748872
H       1.753002   -5.948055   11.047889
H       2.751003   -3.713035   10.053899
H       3.033004   -1.432013   10.317896
H       2.226003   -0.275003   12.210877
H       0.972001    1.185011   12.536874
H       0.981001    3.532033   12.497875
H       0.437001    4.801045   14.348856
C      -0.286000   -2.838026   16.213837
C      -0.600001   -3.926037   17.176828
C      -0.340000   -5.282049   17.253827
C      -0.784001   -5.996056   18.390815
C      -1.459002   -5.417050   19.401805
C      -1.739002   -4.026038   19.380805
C      -2.404003   -3.278031   20.353796
C      -2.562003   -1.923018   20.195797
C      -2.064002   -1.216011   19.078808
C      -1.329002   -1.915018   18.116818
C      -1.242001   -3.326031   18.272817
C      -0.644001   -1.594015   16.862831
C      -0.300000   -0.389004   16.248837
C      -0.402000    3.842036   16.795831
C      -0.739001    3.085029   17.881820
C      -0.749001    1.678016   17.862821
C      -0.433001    1.010009   16.685832
H      -0.972001    1.185011   18.654813
H      -0.981001    3.532033   18.694812
H      -0.437001    4.801045   16.843831
H      -2.226003   -0.275003   18.981809
H      -3.033004   -1.432013   20.873790
H      -2.751003   -3.713035   21.137788
H      -1.753002   -5.948055   20.143798
H      -0.596001   -6.937065   18.442815
H       0.133000   -5.729053   16.548834
