18

C          5.50545        3.50573        4.05924
C          6.07116        2.48253        0.88599
B          5.63429        1.96994        3.57725
H          5.54052        1.10710        4.28414
B          4.37468        3.17863        2.96704
H          3.28174        3.27227        3.19369
B          5.69650        4.46048        2.78953
H          5.65099        5.57625        2.87353
B          6.94547        3.26225        3.40449
H          7.89287        3.42385        3.97983
B          4.98180        1.86335        1.89878
H          4.30964        1.01824        1.60081
B          5.02727        3.62482        1.34246
H          4.39330        4.17903        0.60387
B          6.85102        3.68130        1.64519
H          7.65981        4.27533        1.14751
B          6.81576        1.90790        2.20785
H          7.59593        1.10549        2.15554
