63
chassi-A4-avogadro
C -0.64968653 1.21283091 -0.07053287
C -1.34069641 -0.00371257 -0.07706263
C -0.63903931 -1.21472947 -0.06526566
C 0.76060429 -1.20582837 -0.04823721
C 1.45811477 0.00853035 -0.04123847
C 0.75033729 1.21569178 -0.05513775
C 1.44583641 2.43730861 -0.07099291
C 1.46957700 -2.42011105 -0.05577439
C -2.74559990 -0.01184496 -0.10877539
C 2.08779113 -3.46584786 -0.08061432
C 2.80665401 -4.67202503 -0.14453581
C -3.95981908 -0.02329113 -0.14823067
C -5.36332281 -0.03476202 -0.21446783
C 2.04123393 3.49589623 -0.10161019
C 2.72749196 4.72058473 -0.16720118
C 2.03383428 5.92950476 -0.01818893
C 2.70968950 7.13844231 -0.13532325
C 4.08601801 7.14982469 -0.40139650
C 4.78361437 5.93856058 -0.52325731
C 4.10874136 4.73065374 -0.40801724
C 4.18635504 -4.64411989 -0.39406208
C 4.89358972 -5.83268925 -0.51856703
C 4.22901328 -7.06309807 -0.39892749
C 2.85591437 -7.09026543 -0.11697158
C 2.14879384 -5.89997276 0.01118887
C -6.05215995 -1.25378438 -0.28220178
C -7.43760449 -1.26464461 -0.38765627
C -8.14891986 -0.05620459 -0.42431996
C -7.46034684 1.16177681 -0.32998087
C -6.07473622 1.17328122 -0.22930253
C 4.77424639 8.36456078 -0.56928343
C 4.94226541 -8.26009166 -0.59228184
C -9.54630459 -0.06434676 -0.58454436
C 5.57206357 -9.27683669 -0.79768028
C 6.32229659 -10.46154302 -1.06339801
C -10.74777485 -0.06957181 -0.75718611
C -12.15873691 -0.07509092 -0.96928004
C 5.38581353 9.39948690 -0.74063234
C 6.12863885 10.59668679 -0.96270326
H -1.19869192 2.15437905 -0.08192948
H -1.18110753 -2.16019213 -0.07436914
H 2.54777979 0.01307566 -0.02796229
H 0.96331655 5.91628860 0.18466445
H 2.17581683 8.08123969 -0.02681765
H 5.85554243 5.95343110 -0.71354937
H 4.64415590 3.78738989 -0.50910804
H 4.69665674 -3.68731078 -0.49766909
H 5.96459579 -5.81657522 -0.71606305
H 2.34632195 -8.04694910 -0.00648884
H 1.08068695 -5.91648038 0.22449969
H -5.49606064 -2.19017130 -0.25872272
H -7.97723105 -2.20793747 -0.44641559
H -8.01729589 2.09724155 -0.34232371
H -5.53571928 2.11797035 -0.16684193
H 6.80143368 -10.86706338 -0.15211224
H 7.13318616 -10.27440264 -1.79315279
H 5.69038462 -11.26804284 -1.48010122
H -12.69511667 -0.63316277 -0.17853096
H -12.42851985 -0.54734099 -1.93321987
H -12.57835628 0.94846099 -0.98517520
H 6.92766975 10.73052941 -0.20914048
H 5.49300893 11.50031715 -0.92282032
H 6.62103443 10.59131039 -1.95467671
