172
chassi-B-orca-64
C -0.32156792 -1.71071144 -0.07015957
C -1.11306180 -0.53929793 0.02548273
C -0.54884995 0.69203168 -0.22890125
C 0.81581505 0.80113452 -0.59111215
C 1.60141209 -0.38431161 -0.72757965
C 1.02606280 -1.62850206 -0.46537096
C -0.88066429 -2.93045746 0.24744972
C -1.36914077 -4.05422701 0.58914081
C -1.83326557 -5.18065628 0.92504617
C 1.39454029 2.02808385 -0.80076356
C 2.12674786 3.02971629 -1.03181427
C 2.85075510 4.04784495 -1.26276658
C 2.94820394 -0.27920466 -1.11542690
C 4.11254870 -0.13126336 -1.44099980
C 5.45931181 0.09802838 -1.78450286
C 5.93878599 1.41871269 -1.80098583
C 7.28501157 1.67074956 -2.04057334
C 8.14666327 0.60675243 -2.30040505
C 7.65996809 -0.70298022 -2.41505789
C 6.32599040 -0.96072051 -2.08804397
S 9.89486085 0.89753771 -2.37325613
C 10.49929437 -0.61721869 -1.67532352
C 9.77761319 -1.79820390 -1.89502449
C 8.59772008 -1.77620349 -2.77642033
C 11.67949976 -0.63085929 -0.93469418
C 12.18411972 -1.84115825 -0.46109116
C 11.48129063 -3.02948902 -0.69714383
C 10.23416139 -2.99069750 -1.34153647
C 8.48215757 -2.63366965 -3.80485647
C 7.38376755 -2.80119695 -4.85117879
C 7.05871360 -4.32437357 -4.66708956
C 8.42156038 -4.88348758 -4.37783348
C 9.29791889 -3.86018496 -4.02196843
C 8.84034846 -6.21788463 -4.49639697
C 10.17373313 -6.50120080 -4.31773601
C 11.11467078 -5.46097888 -4.09840350
C 10.68799989 -4.11104011 -3.99089061
C 12.50420874 -5.75847674 -4.02152247
C 13.42597937 -4.74981294 -3.92623531
C 13.00307066 -3.39558204 -3.91618917
C 11.66985928 -3.08346217 -3.93993731
C 6.15243798 -1.92096565 -4.85100667
C 12.04125153 -4.29876062 -0.46089224
C 12.49309760 -5.42996425 -0.42665012
C 13.01330887 -6.73277170 -0.51727269
C 14.40559812 -6.93365113 -0.75860689
C 14.91868030 -8.24833031 -0.87193316
C 14.07482220 -9.33233285 -0.82181421
C 12.68013564 -9.12910298 -0.64334780
C 12.16204443 -7.83714096 -0.45731541
C 11.86933620 -10.24068691 -0.69537192
C 11.18685549 -11.30109699 -0.84896984
C 10.57132486 -12.39384206 -1.01142549
C 15.22440173 -5.85859110 -0.95716684
C 15.73504391 -4.71908790 -1.16069404
C 16.25003120 -3.58579162 -1.39564438
H -2.16133775 -0.62270369 0.30849447
H -1.14432424 1.60651481 -0.14699911
H 1.62301309 -2.53460194 -0.56151612
H 5.24876890 2.23936055 -1.59325343
H 7.65446009 2.69912215 -2.00223808
H 5.96528533 -1.98779933 -2.06083489
H 12.22579955 0.29326705 -0.73177935
H 13.12444361 -1.87010771 0.08938446
H 9.65483722 -3.90628699 -1.45987506
H 7.88879984 -2.66958713 -5.84951592
H 6.58514408 -4.76638516 -5.55212322
H 6.36607429 -4.47661398 -3.82061025
H 8.11810835 -6.99366550 -4.72551706
H 10.53167719 -7.52818539 -4.37549181
H 12.81665408 -6.79976402 -4.05701068
H 14.49169470 -4.96776444 -3.86770712
H 13.75613676 -2.61077145 -3.89848239
H 11.33725039 -2.04398804 -3.93619957
H 5.45126974 -2.17427468 -4.05316329
H 5.60831125 -2.02154465 -5.79591606
H 6.42300854 -0.85914629 -4.74602650
H 15.99554065 -8.38032296 -1.02822762
H 14.45981950 -10.34415809 -0.92926534
H 11.09514432 -7.69368130 -0.29322303
C -2.29061471 -6.42416743 1.27300584
B -3.83624707 -6.64809096 2.04470492
B -3.60636010 -7.22529708 0.32934775
B -2.32996927 -6.95554754 3.01111341
B -1.91056488 -7.79969020 0.19813389
B -1.11825053 -7.60320443 1.84421625
B -1.69158533 -9.20475676 1.27568565
B -1.98235899 -8.70189790 2.98845515
B -3.24822694 -8.98178785 0.37301868
B -3.68914764 -8.09728205 3.12063100
B -4.46515317 -8.25228109 1.49808946
C -3.27150511 -9.44379085 2.05879318
H -4.57252492 -5.71638707 2.30266234
H -4.15762748 -6.67195554 -0.60219939
H -1.99857422 -6.21447485 3.91494927
H -1.28214074 -7.65693289 -0.83271152
H 0.06278815 -7.33889206 1.96420525
H -0.94855870 -10.13074849 1.02228477
H -1.44098169 -9.28297158 3.90799671
H -3.58076719 -9.74985957 -0.50870622
H -4.34404499 -8.26721454 4.12976068
H -5.64737162 -8.51624619 1.40477449
H -3.60339231 -10.46436230 2.32658708
C 3.57767861 5.16384963 -1.50797650
B 4.89052630 5.16199660 -2.75404507
B 3.30991322 6.06718660 -2.97482981
B 5.31999563 5.27502931 -1.02520312
B 2.79768158 6.84206596 -1.42236134
B 3.99167900 6.24294367 -0.20794386
B 4.07712907 7.92820497 -0.87429935
B 5.58830145 6.97677745 -0.60212279
B 3.64339379 7.81492699 -2.63219199
B 6.12742189 6.34598067 -2.21420428
B 4.88420262 6.79021523 -3.45501783
C 5.32168462 7.88642362 -2.11733235
H 5.13676460 4.16090743 -3.39709260
H 2.48831000 5.70613308 -3.79205092
H 5.87213010 4.35537978 -0.45719669
H 1.62511734 6.97282236 -1.13584522
H 3.64889358 6.00566458 0.93363718
H 3.85296027 8.92356555 -0.21705121
H 6.38687226 7.32787301 0.24072933
H 3.10827647 8.72904125 -3.22598251
H 7.30407343 6.25100494 -2.49806076
H 5.18874129 7.01281713 -4.61004447
H 5.90738897 8.79999299 -2.32357574
C 9.95825870 -13.59746565 -1.23575763
B 8.32680247 -13.69587950 -1.86732625
B 9.69436899 -14.17401742 -2.94034769
B 8.68864237 -14.21699017 -0.14953102
B 10.95483756 -14.89548649 -1.84602940
B 10.31261325 -14.98328021 -0.13303389
B 10.28560187 -16.42496777 -1.17749872
B 8.85311304 -16.01065255 -0.14350596
B 9.89887606 -15.93603226 -2.87452817
B 7.61362684 -15.19712584 -1.18279176
B 8.23974606 -15.19580385 -2.87815727
C 8.62750105 -16.52546089 -1.80181944
H 7.66153874 -12.70566609 -2.09989801
H 10.00185922 -13.50152274 -3.90440574
H 8.28625316 -13.57794827 0.80402246
H 12.14109228 -14.75831532 -2.07242667
H 11.04130403 -14.86634318 0.83236584
H 10.95577686 -17.41373758 -0.96105545
H 8.52823657 -16.70310872 0.79928366
H 10.30691233 -16.59191399 -3.81317039
H 6.42746482 -15.33430073 -0.96493289
H 7.48299655 -15.33939953 -3.81920526
H 8.17573382 -17.51434613 -1.99429847
C 16.71079829 -2.33553979 -1.62970887
B 16.72877929 -1.69193728 -3.23876410
B 15.54244424 -0.97331180 -2.04846177
B 18.32769016 -2.04140946 -2.43790123
B 16.35578270 -1.02967972 -0.46285302
B 18.06094514 -1.69563557 -0.69682397
B 17.77033809 0.05600635 -0.50680982
B 18.95473157 -0.52756746 -1.74643360
B 16.25916865 0.51809942 -1.38585217
B 18.12713249 -0.54570578 -3.36217085
B 16.44812692 0.09019308 -3.13249877
C 17.80524405 0.71993092 -2.16890842
H 16.34549391 -2.34802083 -4.18768171
H 14.34704000 -1.17394795 -2.13727098
H 19.01775341 -2.97356476 -2.79363525
H 15.71457701 -1.24988148 0.54349265
H 18.60471678 -2.36243608 0.15913938
H 18.14841629 0.68975040 0.45672606
H 20.13945460 -0.29844852 -1.62669438
H 15.59175237 1.46699783 -1.03101133
H 18.72322160 -0.32387705 -4.39573804
H 15.91394908 0.73692306 -4.01017821
H 18.17520730 1.74254331 -2.35152239
