28
PVBA ORCA - Last Step: 12
  C      4.476541    7.196774    2.058092
  C      3.917688    6.462581    3.227928
  C      3.674974    7.085234    4.469810
  H      3.905529    8.152249    4.593828
  C      3.146499    6.343313    5.530691
  H      2.957035    6.834009    6.498469
  C      2.845620    4.964170    5.390205
  C      3.096109    4.353840    4.132150
  H      2.871896    3.287198    3.985697
  C      3.622338    5.089469    3.071874
  H      3.819525    4.623630    2.095113
  C      2.296409    4.240803    6.536207
  H      2.153306    4.853149    7.442835
  C      1.955154    2.923194    6.579000
  H      2.090352    2.306614    5.674345
  C      1.404716    2.207544    7.730437
  C      1.187668    2.796341    9.000991
  H      1.439125    3.850521    9.188743
  C      0.650097    2.019992   10.034985
  H      0.478717    2.473917   11.027763
  N      0.314710    0.721479    9.909772
  C      0.521032    0.157145    8.707854
  H      0.243941   -0.908093    8.611967
  C      1.054898    0.841580    7.605433
  O      4.701931    6.699432    0.965916
  O      4.718489    8.510921    2.324795
  H      5.078225    8.880889    1.489610
  H      1.200134    0.319095    6.646547
