54
TPEE ORCA - Last Step: 42
  C      3.577599   -2.599003   -0.234842
  C     -3.624020   -2.595875   -0.024983
  C     -3.581457    2.656053   -0.077888
  C      3.610653    2.540171    0.344096
  C      3.770783   -3.965599    0.101165
  C     -3.803139   -3.937509   -0.456334
  C     -3.752002    3.998132    0.355564
  C      4.706117    1.746689    0.784340
  C      4.697864   -1.829381   -0.654209
  C     -4.756771   -1.860854    0.421775
  C     -4.710292    1.944196   -0.569596
  C      3.837253    3.905446    0.023695
  C      5.047020   -4.536786    0.025738
  C     -5.077320   -4.517792   -0.445328
  C     -5.014414    4.601424    0.302733
  C      5.984796    2.305305    0.891177
  C      5.968109   -2.412342   -0.725708
  C     -6.025000   -2.452602    0.428030
  C     -5.966683    2.558781   -0.617460
  C      5.121701    4.452173    0.134596
  C     -0.019422   -0.709469   -0.030775
  C     -0.009930    0.710920    0.039238
  C      6.148983   -3.765332   -0.385269
  C     -6.191600   -3.780378   -0.005962
  C     -6.125084    3.886822   -0.181197
  C      6.198878    3.657281    0.566136
  C      2.293925   -1.993733   -0.151682
  C     -2.341039   -1.984132   -0.038152
  C     -2.310507    2.021835   -0.023731
  C      2.318857    1.958759    0.225441
  C      1.202589   -1.421193   -0.089600
  C     -1.247939   -1.411384   -0.042870
  C     -1.227631    1.431289    0.014795
  C      1.220183    1.404373    0.134200
  H      2.906553   -4.563121    0.425568
  H     -2.929331   -4.508563   -0.801762
  H     -2.880834    4.551188    0.735344
  H      4.529421    0.693079    1.044174
  H      4.547206   -0.774823   -0.926376
  H     -4.617838   -0.826640    0.767299
  H     -4.577329    0.909671   -0.916559
  H      2.992540    4.521869   -0.316538
  H      5.186087   -5.595439    0.292916
  H     -5.204673   -5.556869   -0.784672
  H     -5.135180    5.640704    0.643796
  H      6.823471    1.680409    1.234141
  H      6.826422   -1.806127   -1.053221
  H     -6.892966   -1.873355    0.778062
  H     -6.832030    1.997730   -1.002060
  H      5.286676    5.510057   -0.120666
  H      7.149792   -4.220008   -0.442662
  H     -7.190837   -4.242069    0.000145
  H     -7.115038    4.366552   -0.220641
  H      7.206130    4.092768    0.651782
