66
Chassi-A2-cd
C 5.03767710 6.25816712 -1.72634577
C 5.56858856 5.01774965 -1.39201295
C 4.72384742 3.94062078 -1.09869688
C 3.32563838 4.12195287 -1.15448317
C 2.79426220 5.36912847 -1.49355915
C 3.64857235 6.44110556 -1.77516784
C 2.45540631 3.05988354 -0.86387085
C 1.69973278 2.14599990 -0.60048473
C 0.84294517 1.07553619 -0.30134541
C 1.38957220 -0.16755942 0.03153597
C 0.55730244 -1.24768917 0.33452377
C -0.84284915 -1.07579941 0.29822836
C -1.38991886 0.16702418 -0.03558122
C -0.55742807 1.24836498 -0.33345767
C -1.70159895 -2.14450088 0.59547153
C -2.45676021 -3.05838150 0.85950250
C -3.32522961 -4.12131408 1.15159637
C -2.79288511 -5.36857665 1.48825278
C -3.64801922 -6.43903765 1.77299405
C -5.03753370 -6.25729655 1.72151591
C -5.57001824 -5.01662296 1.38996009
C -4.72402084 -3.93886904 1.10165302
C -5.24258499 -2.67865747 0.75679104
C -3.08778953 -7.68730985 2.10111506
C -5.63824948 -1.57460953 0.44448229
C -6.08516385 -0.27200102 0.06919305
C -2.55845506 -8.74466579 2.37486884
C -1.92258578 -9.98383006 2.68765012
C -1.10637532 2.49898166 -0.66505963
C 1.10920009 -2.49378373 0.67451219
C 3.08964476 7.69046513 -2.09931624
C 2.56116977 8.74863101 -2.37093346
C 1.92499926 9.98569730 -2.68832882
C 5.24383693 2.68475708 -0.74441251
C 5.64293460 1.58175795 -0.43202900
C 6.08779156 0.27764613 -0.06310783
C -1.55441788 3.58872689 -0.95673398
C -2.07112947 4.87054090 -1.31152979
C 1.56012970 -3.58176857 0.96752813
C 2.07566574 -4.86532245 1.31555511
H 5.69945234 7.09337572 -1.94970334
H 6.64801875 4.87687979 -1.35412687
H 1.71327907 5.50389639 -1.53493673
H 2.47196928 -0.29297138 0.05409616
H -2.47251923 0.29115685 -0.06190668
H -1.71171281 -5.50455339 1.52549133
H -5.69942940 -7.09306398 1.94208715
H -6.64985442 -4.87614734 1.35212638
H -6.29985642 -0.20570735 -1.01431914
H -5.32893161 0.50487367 0.29423418
H -7.01201265 0.01912892 0.59620431
H -1.78643093 -10.61546739 1.78964304
H -2.50510510 -10.58120980 3.41305507
H -0.91851148 -9.83264909 3.12704852
H 1.61478269 10.03039644 -3.74931128
H 2.58948824 10.85194340 -2.51269515
H 1.01529335 10.14864547 -2.07997299
H 6.12405149 -0.40755074 -0.93131800
H 5.41467985 -0.18806615 0.68265334
H 7.10020632 0.28821610 0.37903751
H -2.32086377 4.92905259 -2.38771763
H -1.34418466 5.68027542 -1.10728395
H -2.99308379 5.11806535 -0.75454823
H 2.14913452 -5.53418028 0.43731134
H 1.43085699 -5.37848443 2.05479998
H 3.08649850 -4.80276322 1.75722959
