122
chassi-D1-cdh
C -3.35308499 -1.94649564 -3.21048314
C -2.40261555 -2.89783993 -3.36108330
C -1.11663132 -2.28229808 -2.93977769
N -1.28838290 -0.99799015 -2.61943015
C -2.68170614 -0.72865386 -2.68737031
C -2.35705313 3.73351984 -1.04243928
C -3.30856338 2.71932970 -1.17443164
C -2.68586659 1.62263264 -1.83162252
N -1.37312091 1.97281972 -2.07880898
C -1.14885668 3.26493189 -1.62184467
C -3.30373513 0.39924338 -2.25648520
C 3.41275895 3.06956958 -2.83768378
C 2.48660489 4.03877049 -2.64873626
C 1.23011032 3.36855622 -2.25052771
N 1.44917408 1.96004348 -2.29352297
C 2.74457531 1.77539658 -2.53808702
C 0.08559895 3.96641277 -1.81734860
C 2.62227300 -2.98470053 -2.26530389
C 3.54108741 -2.00388660 -2.13534331
C 2.87012595 -0.69580336 -2.34874832
N 1.51373470 -0.97792537 -2.53449738
C 1.30559493 -2.36036833 -2.55160998
C 0.12941342 -2.99023106 -2.84212756
C 3.45715316 0.53023703 -2.44129901
C 0.11652019 5.40818922 -1.51737891
C 4.92246798 0.60732864 -2.40273201
C -4.77671051 0.39307402 -2.20850484
C 5.68165675 -0.17978551 -3.27499752
C 7.07082962 -0.12502903 -3.23066942
C 7.70948687 0.73856171 -2.34263238
C 6.95398634 1.54159234 -1.48759545
C 5.56437138 1.46574954 -1.50406256
C -5.50670863 1.36079396 -2.90120769
C -6.89784853 1.32984103 -2.86461542
C -7.55790331 0.33299964 -2.14724342
C -6.82802377 -0.62891044 -1.45140266
C -5.43695383 -0.59502365 -1.47219229
C -0.84212924 6.28815546 -2.02716524
C -0.74533268 7.65287012 -1.77253289
C 0.31338544 8.15324447 -1.00133863
C 1.25722260 7.26738864 -0.46178666
C 1.15202995 5.90555365 -0.71340158
C 0.13610803 -4.43945379 -3.06856027
C 0.44343553 9.53448901 -0.76956942
C 1.04472896 -4.98170978 -3.98716642
C 1.07776691 -6.35032811 -4.22012636
C 0.19324732 -7.20101279 -3.53983949
C -0.71935558 -6.66077842 -2.62296895
C -0.74222167 -5.28899092 -2.38808052
C 0.23148821 -8.58373885 -3.79639262
C 0.28008808 -9.77226134 -4.04660378
C 0.33181804 -11.14195165 -4.36123086
C 0.57113382 10.72656960 -0.56776133
C 0.68668538 12.10457515 -0.31344091
C -0.48237214 12.86794152 -0.18472038
C -0.40334419 14.23432519 0.09667936
C 0.85092837 14.84779134 0.24446989
C 2.00881748 14.09811489 0.11092280
C 1.94282819 12.72400192 -0.17191919
C 1.56506830 -11.80151546 -4.39193819
C 1.62877415 -13.15529336 -4.73793869
C 0.45040709 -13.86339682 -5.01331457
C -0.77631760 -13.21493301 -4.97663454
C -0.84957191 -11.84939934 -4.67059464
C -1.56514636 15.01339296 0.23638303
C 3.15883313 12.03049057 -0.29317384
C -2.55349705 15.70622980 0.36313494
C -3.72033433 16.51497693 0.50694711
C 4.25745743 11.51967316 -0.37304069
C 5.55529572 10.93176731 -0.45556289
C -2.08400560 -11.17868266 -4.70111644
C -3.12839447 -10.56322004 -4.76092011
C -4.35283053 -9.83407119 -4.82757322
C 2.87077630 -13.80871009 -4.83172389
C 3.95328989 -14.34941434 -4.93029686
C 5.22658847 -14.98345027 -5.04758404
H -4.40011376 -1.99493467 -3.42919554
H -2.49087038 -3.90030806 -3.72416888
H -2.49589214 4.68942665 -0.58138146
H -4.32429598 2.74283350 -0.83978555
H -0.65979743 1.35543605 -2.43771712
H 4.42712972 3.15147432 -3.16226500
H 2.57867761 5.09779251 -2.77810531
H 2.74485127 -4.04670131 -2.16237336
H 4.58529279 -2.08273524 -1.89207555
H 0.77893272 -0.28243811 -2.55779247
H 5.18369489 -0.82987567 -3.99420915
H 7.65857192 -0.75626389 -3.89409870
H 8.79520292 0.78888350 -2.31354815
H 7.45050986 2.22709599 -0.80349548
H 4.97196418 2.07082979 -0.81840588
H -4.98626036 2.13355364 -3.46741221
H -7.46978314 2.08454239 -3.39979293
H -8.64487730 0.30731674 -2.12835063
H -7.34163871 -1.40864439 -0.89334933
H -4.86041014 -1.33444802 -0.91539898
H -1.66312435 5.90474777 -2.63470256
H -1.48654141 8.33944270 -2.17748478
H 2.07220099 7.65258100 0.14981669
H 1.87948513 5.21590571 -0.28168568
H 1.72266822 -4.32301312 -4.52936319
H 1.78521308 -6.76972932 -4.93468496
H -1.40718019 -7.31865481 -2.09527130
H -1.44172966 -4.87306510 -1.66306301
H -1.45517202 12.39115159 -0.29544974
H 0.90482371 15.91244765 0.46693757
H 2.98426611 14.57086877 0.22525880
H 2.48011037 -11.25956399 -4.15220903
H 0.50699147 -14.92240468 -5.25924407
H -1.68971440 -13.76652962 -5.19307571
H -3.49673447 17.59020066 0.37962203
H -4.18444863 16.39920341 1.50435009
H -4.49616889 16.25758267 -0.23968475
H 5.86306215 10.75449823 -1.50143037
H 5.60297247 9.95626602 0.05923605
H 6.32803355 11.57820093 0.00393356
H -4.21882039 -8.85397664 -5.32647581
H -4.76131334 -9.62711479 -3.82077961
H -5.13420337 -10.37769653 -5.38972606
H 6.00651629 -14.27378739 -5.38276507
H 5.21148500 -15.81743971 -5.77614070
H 5.56734034 -15.40994821 -4.08485341
