172
chassi-B-mopac
C -0.60098909 -1.34965906 0.12216767
C -1.29682044 -0.11605285 0.08777009
C -0.60439684 1.07518231 0.11429693
C 0.81108104 1.07058163 0.16525445
C 1.52174206 -0.15688581 0.25486435
C 0.80448507 -1.35057920 0.24223594
C -1.28604707 -2.53192074 -0.01413399
C -1.90756273 -3.61689090 -0.17881527
C -2.52690067 -4.71422701 -0.35443657
C 1.45038037 2.28106710 0.08646935
C 1.97878040 3.42999114 -0.06756805
C 2.47185827 4.57891086 -0.22271128
C 2.92573439 -0.16089980 0.24935298
C 4.13809486 -0.14878287 0.13892986
C 5.49014435 -0.07554512 -0.25164355
C 5.88393730 1.08840627 -0.93072733
C 7.11329534 1.13012736 -1.57352247
C 7.90789539 -0.01400385 -1.60307854
C 7.53541034 -1.18594425 -0.93246286
C 6.37193652 -1.16031373 -0.15571250
S 9.41959038 0.04576838 -2.49980482
C 10.38219498 -1.10574772 -1.56856807
C 9.78887047 -2.21565006 -0.95039865
C 8.33098649 -2.41907886 -1.08046926
C 11.75505820 -0.87749075 -1.51831847
C 12.58867590 -1.84145565 -0.96625520
C 12.02561819 -3.00523891 -0.42476125
C 10.63284427 -3.13152888 -0.31114101
C 7.78324603 -3.61006738 -1.39665246
C 6.34385757 -4.03815296 -1.70399332
C 6.17950037 -5.23701004 -0.70652965
C 7.55888606 -5.82674363 -0.73191602
C 8.45017804 -4.93637643 -1.32898261
C 7.94662665 -7.11861446 -0.34977880
C 9.18694783 -7.56704964 -0.74201305
C 10.01606609 -6.76694431 -1.57587021
C 9.66285776 -5.42439788 -1.86530634
C 11.15865538 -7.32789191 -2.20880102
C 11.91097432 -6.58172669 -3.07901010
C 11.56190495 -5.23759489 -3.36274417
C 10.46186497 -4.67540458 -2.77202581
C 5.14331706 -3.11708560 -1.69190161
C 12.85265811 -4.12432277 -0.22885316
C 13.51899828 -5.13747133 -0.32832112
C 14.12397940 -6.36996855 -0.61686801
C 15.29123437 -6.45637733 -1.41814081
C 15.75982207 -7.72658612 -1.84137438
C 15.04293007 -8.86433478 -1.54443932
C 13.84698762 -8.78522393 -0.78601569
C 13.44041892 -7.53605304 -0.27591075
C 13.04369667 -9.89163449 -0.66490491
C 12.36880460 -10.95775370 -0.70779667
C 11.66181333 -12.01248395 -0.77365274
C 15.97031732 -5.35093630 -1.86702801
C 16.55486366 -4.38107104 -2.45067827
C 17.15345232 -3.44898234 -3.05448833
H -2.38913999 -0.12690757 0.02642820
H -1.13610183 2.02520653 0.07699421
H 1.33201135 -2.30876485 0.30220661
H 5.21673944 1.94984196 -0.96208970
H 7.43033380 2.05432273 -2.06253082
H 6.13146423 -2.00875027 0.48731683
H 12.19300348 0.03343387 -1.93332905
H 13.66954570 -1.70709108 -0.97512286
H 10.21052414 -3.98627928 0.22198234
H 6.39773058 -4.45944744 -2.75157950
H 5.40666404 -5.94678761 -1.04033496
H 5.88281082 -4.88683287 0.29500923
H 7.26820583 -7.74712633 0.22182433
H 9.53008324 -8.56341654 -0.45505132
H 11.39963937 -8.37385841 -2.01570330
H 12.77594402 -7.01290057 -3.57769806
H 12.16711223 -4.66978834 -4.06617759
H 10.16092547 -3.65369788 -3.00955837
H 4.74776069 -2.93396893 -0.68605535
H 4.31434116 -3.56058083 -2.26444411
H 5.36066300 -2.15048074 -2.16559241
H 16.67478394 -7.78879567 -2.42782560
H 15.36929996 -9.84164238 -1.91304125
H 12.54256518 -7.47712247 0.35046785
C -3.09556473 -5.93088008 -0.52551729
B -4.91763176 -6.14408936 -0.58827679
B -3.86856364 -6.35920127 -2.03647678
B -3.90052376 -6.70115327 0.80843007
B -2.29273706 -7.17086610 -1.55180576
B -2.31953662 -7.40956020 0.21525459
B -2.69722313 -8.78366583 -0.86370640
B -3.66643898 -8.48102640 0.63646273
B -3.60698179 -8.12093075 -2.28000335
B -5.23229283 -7.72839310 0.13314728
B -5.20184677 -7.52606300 -1.66712794
C -4.43740223 -8.91084739 -0.90902234
H -5.66602257 -5.19445957 -0.48865130
H -3.92406459 -5.57990973 -2.96743570
H -3.98377083 -6.16838791 1.89905609
H -1.25172950 -6.93013660 -2.12962261
H -1.30082307 -7.32130986 0.86857582
H -1.97990317 -9.75522222 -0.97058427
H -3.63402715 -9.24396794 1.57958247
H -3.52531314 -8.63761502 -3.37463952
H -6.25492254 -7.98268140 0.73497322
H -6.20262989 -7.63742299 -2.34525961
H -4.89152378 -9.90885520 -1.03669858
C 3.02742739 5.82130383 -0.38340348
B 4.63100939 5.91221696 -1.10474339
B 3.21261927 6.54301907 -2.03425492
B 4.37454546 6.27389381 0.68200519
B 2.05276924 7.20671889 -0.80698260
B 2.78347827 7.10009117 0.86115095
B 2.83591358 8.63656177 -0.03408268
B 4.29408687 8.05889839 0.87232713
B 3.10693555 8.30045298 -1.78918799
B 5.43915697 7.30378191 -0.31281111
B 4.72074076 7.49349804 -1.96483724
C 4.46196354 8.72624854 -0.73909616
H 5.23103301 4.92274105 -1.47345905
H 2.81112400 5.98027999 -3.03280550
H 4.78814575 5.52510570 1.54502162
H 0.85035026 7.13610110 -0.97836711
H 2.09186733 6.92072762 1.84362015
H 2.22601044 9.62802624 0.31514980
H 4.70221911 8.64160349 1.85746996
H 2.67946333 9.05986162 -2.63579193
H 6.64056667 7.36530805 -0.14629705
H 5.42869110 7.68382757 -2.93264375
H 4.95037818 9.71045055 -0.86058448
C 11.04086093 -13.20331067 -0.94567228
B 9.23310526 -13.32982658 -0.99875472
B 10.29479477 -13.58671581 -2.46935260
B 10.14898809 -13.96959875 0.39702821
B 11.79732539 -14.50037293 -2.02798586
B 11.73725490 -14.65157805 -0.23587818
B 11.33159611 -16.05365052 -1.30526433
B 10.36364779 -15.72411120 0.18800266
B 10.43078505 -15.37784459 -2.72587472
B 8.81909259 -14.93753615 -0.33168505
B 8.88683283 -14.66084685 -2.11977855
C 9.57990658 -16.11797877 -1.36801934
H 8.52912854 -12.34663685 -0.89065697
H 10.29414955 -12.79820848 -3.39325268
H 10.07173144 -13.43813936 1.48629463
H 12.84503557 -14.30578257 -2.60505533
H 12.75745301 -14.60614781 0.42255047
H 12.01507777 -17.05168407 -1.38773847
H 10.38763195 -16.50167100 1.12068943
H 10.47304550 -15.89706715 -3.82216471
H 7.77312037 -15.16718214 0.23919452
H 7.88723209 -14.69991898 -2.80768507
H 9.08667807 -17.09595097 -1.50651191
C 17.78661441 -2.44841909 -3.74708477
B 18.12719622 -2.67597045 -5.47998553
B 16.87093561 -1.49550405 -4.97211388
B 19.46676910 -2.66032249 -4.22524416
B 17.42608481 -0.78129340 -3.38343208
B 19.06469895 -1.44565517 -2.95298431
B 18.93570460 0.15662060 -3.70975511
B 20.21002837 -1.01665431 -4.24925880
B 17.59958274 0.12898817 -4.93136748
B 19.65084569 -1.79351693 -5.78556044
B 18.06322496 -1.04454433 -6.23054658
C 19.28969010 -0.08915757 -5.42282844
H 17.82226629 -3.69158799 -6.07181599
H 15.69479507 -1.70044166 -5.19420267
H 20.09659710 -3.66387934 -3.95487654
H 16.63008959 -0.45926445 -2.52389747
H 19.39017888 -1.61948755 -1.79482715
H 19.22217885 1.18654534 -3.13341824
H 21.39168436 -0.81186215 -4.04815350
H 16.97573192 1.13897815 -5.18584117
H 20.44935441 -2.11964322 -6.64053676
H 17.76165653 -0.85463178 -7.39312367
H 19.80089294 0.71283776 -5.99013517
