156
chassi-F1-cdh
C -9.40577073 2.53735202 -1.19345569
C -8.79790994 1.28624884 -0.97492670
C -9.59728473 0.16077111 -0.73255190
C -10.98844073 0.28099350 -0.70152777
C -11.59312573 1.52797496 -0.92651689
C -10.80658967 2.64340389 -1.17075015
C -8.64856237 3.69588744 -1.42325803
C -8.03025182 4.72410903 -1.61752702
C -7.32567203 5.92062973 -1.82997786
C -11.79268955 -0.84054228 -0.43631241
C -12.50811497 -1.79455618 -0.20100275
C -13.32153168 -2.90644363 0.07638089
C -12.73182757 -4.13668043 0.40042833
C -13.53005115 -5.23818806 0.67947955
C -14.92614031 -5.12357446 0.64000919
C -15.51524422 -3.89463927 0.31297143
C -14.71842218 -2.79146628 0.03163651
C -8.03178512 7.12364039 -1.97617440
C -7.34150281 8.31246191 -2.17736506
C -5.94009401 8.30813474 -2.23486121
C -5.23618947 7.10362478 -2.09199436
C -5.92532231 5.91395724 -1.89055413
C -15.73351583 -6.23712582 0.93317321
C -5.24313652 9.51297041 -2.43165491
C -16.43404152 -7.19476600 1.19017982
C -17.26089737 -8.31821810 1.49286769
C -4.64394061 10.55401082 -2.60389425
C -3.93731019 11.77660593 -2.80472589
C -7.40242418 1.12031658 -0.97762151
C -6.20594953 0.89956573 -0.94790412
C -4.81928216 0.67755336 -0.93435474
C -3.99572018 1.70042397 -1.41091392
C -2.59815811 1.55943456 -1.45474162
C -1.98402089 0.39309117 -0.96667040
C -2.81481308 -0.63644215 -0.49580192
C -4.20789854 -0.51217975 -0.48861186
C -0.60027954 0.15647046 -0.89962348
C 0.57369311 -0.15642098 -0.80228209
C 1.95403720 -0.41840885 -0.72580856
C 2.81342261 0.66313969 -0.96136612
C 4.20516824 0.52237262 -0.91615802
C 4.79270899 -0.72518657 -0.62782726
C 3.93845818 -1.80869626 -0.39898991
C 2.54413411 -1.66563858 -0.44527832
C 6.17889495 -0.93614963 -0.54441629
C 7.37752303 -1.12799616 -0.45745465
C 8.76869270 -1.29448345 -0.35917662
C 9.60772003 -0.20686327 -0.62303468
C 10.99459118 -0.35216742 -0.51873098
C 11.54918151 -1.58978842 -0.16109740
C 10.72023386 -2.67328341 0.10153374
C 9.32907180 -2.53559866 0.01046109
C 8.48826566 -3.62251643 0.29182013
C 11.83017008 0.75077081 -0.76553593
C 12.54348897 1.71332819 -0.97063472
C 13.34260090 2.84667308 -1.19785473
C 7.73729978 -4.54642345 0.53538558
C 6.83764106 -5.58879331 0.81290131
C 12.73951366 4.04106543 -1.61534910
C 13.51348626 5.17627871 -1.81997960
C 14.89800872 5.12965787 -1.60576831
C 15.50129632 3.93224793 -1.19862321
C 14.72782236 2.79494710 -0.99424761
C 7.30474348 -6.85783671 1.17994119
C 6.40044684 -7.87677272 1.45427282
C 5.02256714 -7.63558796 1.36241360
C 4.55621998 -6.36583290 0.99327768
C 5.45916706 -5.34753650 0.71946712
C 4.10465897 -8.66239731 1.64200981
C 3.30627934 -9.54415996 1.88167223
C 2.36632455 -10.58003744 2.16228425
C 15.67661804 6.28327128 -1.80217392
C 16.34566654 7.28094873 -1.97549959
C 17.13706004 8.45082040 -2.17907853
O 1.93313865 -2.84778606 -0.18547245
C -1.33046712 -4.55419580 0.01094223
C 0.18490958 -4.37159186 0.02194536
C 0.50755961 -2.90076812 -0.25201733
O 4.81795415 1.70313016 -1.18669738
C 8.06529310 3.45165975 -1.44915521
C 6.55248785 3.23719929 -1.44487251
C 6.24459767 1.77080286 -1.13476681
O -4.80875160 -1.63643630 -0.01879944
C -8.07861859 -3.19537773 0.76791688
C -6.56331041 -3.03778918 0.65065078
C -6.23725087 -1.66405560 0.06014065
O -2.06043573 2.65133763 -2.04796867
C 1.29746303 4.12178509 -1.39853967
C -0.16226929 3.76980334 -1.13579413
C -0.66576440 2.83173429 -2.23205128
H -9.12959450 -0.81009706 -0.56302545
H -12.67841484 1.61242734 -0.90325922
H -11.27210359 3.61382269 -1.34393204
H -11.64728225 -4.22674279 0.42790770
H -13.07397041 -6.19470996 0.92926710
H -16.59988415 -3.80685285 0.28306163
H -15.17496905 -1.83522161 -0.21935734
H -9.12028381 7.12359119 -1.93198052
H -7.88172516 9.25111470 -2.29229003
H -4.14779325 7.10437752 -2.13723106
H -5.38169074 4.97499453 -1.77374520
H -16.71090622 -9.10004542 2.04969779
H -17.66222721 -8.79618782 0.57937157
H -18.13307069 -8.03899249 2.11427636
H -2.92644113 11.74701741 -2.35591937
H -4.46608449 12.64061661 -2.35915056
H -3.80489363 12.00511215 -3.87850144
H -4.43971902 2.63141456 -1.77265217
H -2.36676467 -1.56067469 -0.12739840
H 2.38800968 1.64536279 -1.18174121
H 4.35585788 -2.79431132 -0.18034487
H 9.17898927 0.75443144 -0.90744925
H 12.63066209 -1.69614366 -0.08640265
H 11.14652173 -3.63644510 0.38310822
H 11.66288136 4.07503262 -1.77609552
H 13.05114600 6.10711999 -2.14257698
H 16.57779584 3.89876899 -1.04163583
H 15.19397972 1.86223786 -0.67606175
H 8.37544975 -7.04302824 1.24928207
H 6.75720163 -8.86395227 1.74104077
H 3.48608760 -6.18046031 0.92416845
H 5.10207168 -4.35683768 0.43247450
H 2.82841799 -11.41788507 2.71715820
H 1.93154731 -11.00601425 1.23847180
H 1.52123823 -10.21650157 2.77679753
H 18.14509615 8.35511665 -1.73306937
H 16.67302719 9.35105380 -1.73275610
H 17.28032135 8.66768911 -3.25470404
H -1.60499427 -5.59263894 0.22569874
H -1.76148900 -4.29574459 -0.96378889
H -1.82212007 -3.92952043 0.76608530
H 0.61320391 -4.68303193 0.99336606
H 0.66151768 -5.01635910 -0.74132719
H 0.08552486 -2.23609588 0.52118467
H 0.17624708 -2.58654481 -1.25803081
H 8.31469038 4.49594193 -1.67416457
H 8.56245553 2.83303115 -2.20656833
H 8.50709332 3.21444938 -0.47533187
H 6.06440858 3.89188626 -0.69802374
H 6.11087913 3.52115839 -2.42164657
H 6.58438035 1.48525988 -0.12691380
H 6.66508072 1.09356279 -1.89837370
H -8.34152709 -4.15914198 1.22079051
H -8.57076686 -3.15473252 -0.21045017
H -8.52138750 -2.41330726 1.39788591
H -6.08083828 -3.15140547 1.64029411
H -6.13229925 -3.83596526 0.01669462
H -6.57858839 -0.84832762 0.72187887
H -6.65247132 -1.54948618 -0.95607103
H 1.63170214 4.96001500 -0.77388665
H 1.47147784 4.41613966 -2.44066130
H 1.95674765 3.27131486 -1.18131940
H -0.28037209 3.30138698 -0.14079517
H -0.78993891 4.68258557 -1.10780034
H -0.10682444 1.88827662 -2.29893517
H -0.64654882 3.31830853 -3.22886247
