24
p-carborane (CCDC: BCABOR10)
H       0.347718    0.160262    0.014425
B      -0.814670   -0.160262   -0.014425
C      -1.429370   -1.698779   -0.478096
B      -1.565328   -1.279961    1.174633
B      -1.661888   -0.403861   -1.556561
B      -2.082237    0.947684   -0.530989
B      -2.025001    0.414545    1.147843
B      -2.840569   -2.206276    0.337965
B      -2.895232   -1.660316   -1.349111
H      -0.716254   -2.425301   -0.721266
B      -3.258342   -0.847253    1.367658
H      -0.920555   -1.773568    1.964591
B      -3.355603    0.022437   -1.373153
H      -1.061967   -0.277788   -2.486650
C      -3.498131    0.450871    0.278890
H      -1.932934    1.997935   -0.776220
H      -1.852813    1.175256    1.868422
B      -4.075322   -1.076962   -0.188903
H      -2.992455   -3.247980    0.549536
H      -3.067882   -2.435985   -2.156929
H      -3.858728   -0.982941    2.335528
H      -4.032975    0.534207   -2.108844
H      -4.230248    1.196624    0.556405
H      -5.220798   -1.271413   -0.219814
