54
DC ORCA - Last Step: 5
  C      0.266204    2.873130    0.126954
  C     -0.462161    4.038418    0.375759
  C      0.214811    5.293440    0.416753
  C      1.588582    5.409108    0.211138
  C      2.375645    4.235893   -0.005734
  C      3.786763    4.175732   -0.225493
  C      4.404126    2.942229   -0.427360
  C      3.686501    1.710075   -0.379515
  C      2.312774    1.724925   -0.129547
  C      1.683093    3.000782   -0.002943
  C     -0.033873    1.428619    0.024530
  C      1.236499    0.716107   -0.024538
  C      1.253989   -0.685332    0.021197
  C      2.355319   -1.666638    0.126626
  C      3.728665   -1.616760    0.374414
  C      4.476965   -2.830414    0.424426
  C      3.890540   -4.079519    0.226434
  C      2.481256   -4.175465    0.007815
  C      1.757848   -2.958095    0.003034
  H     -1.540416    4.014932    0.575340
  H     -0.377294    6.200257    0.613741
  H      2.073451    6.397597    0.229671
  H      4.376826    5.105033   -0.248113
  H      5.486046    2.908656   -0.627991
  H      4.228446    0.777127   -0.574704
  H      4.247477   -0.669906    0.565526
  H      5.557965   -2.769139    0.623598
  H      4.503658   -4.993685    0.251049
  C     -1.238740    0.712784   -0.021146
  C     -2.650811    1.141016   -0.119425
  C     -3.324998    2.340738   -0.355470
  C     -4.750953    2.347283   -0.398559
  C     -5.510428    1.194276   -0.206241
  C     -4.856680   -0.060218   -0.000836
  C     -5.479409   -1.330422    0.204319
  C     -4.691879   -2.464355    0.396940
  C     -3.266532   -2.422957    0.353978
  C     -2.621841   -1.207095    0.118099
  C     -3.440549   -0.042893   -0.000642
  C     -1.220672   -0.744196    0.019641
  C      0.001793   -1.429553   -0.026187
  C      1.723698   -5.368480   -0.206315
  C      0.347403   -5.287658   -0.411889
  C     -0.360771   -4.049896   -0.373356
  C      0.338225   -2.866292   -0.126639
  H     -1.439184   -4.053711   -0.573284
  H     -0.221811   -6.209430   -0.607065
  H      2.233010   -6.344638   -0.222996
  H     -2.707061   -3.347425    0.538593
  H     -5.180547   -3.432977    0.584077
  H     -6.578173   -1.405804    0.221393
  H     -6.610700    1.242342   -0.223954
  H     -5.263012    3.303737   -0.585663
  H     -2.788085    3.278486   -0.540460
