68

C         -2.23220        9.74140       -2.59820
C         -1.69710        8.49710       -2.26570
C         -2.54590        7.42690       -1.98190
C         -3.92880        7.60100       -2.03070
C         -4.46340        8.84580       -2.36320
C         -3.61510        9.91600       -2.64700
C         -1.43370       10.74910       -2.86580
C         -0.69650       11.67860       -3.11250
C          0.19800       12.80670       -3.41150
C         -4.72740        6.59380       -1.76360
C         -5.46450        5.66380       -1.51690
C         -6.35850        4.53630       -1.21790
C         -2.04230        6.25520       -1.66920
C         -1.57780        5.17340       -1.38030
C         -1.07470        4.00170       -1.06760
C          0.30820        3.82760       -1.01890
C          0.84320        2.58280       -0.68640
C         -0.00560        1.51260       -0.40260
C         -1.38850        1.68720       -0.45130
C         -1.92300        2.93150       -0.78380
N          0.47770        0.38810       -0.10250
N         -0.47770       -0.38810        0.10250
C          0.00510       -1.51260        0.40310
C         -0.84320       -2.58280        0.68690
C         -0.30870       -3.82700        1.01890
C          1.07420       -4.00170        1.06760
C          1.92250       -2.93150        0.78380
C          1.38800       -1.68670        0.45130
C          1.57780       -5.17340        1.38030
C          2.04230       -6.25470        1.66920
C          2.54540       -7.42640        1.98240
C          3.92830       -7.60100        2.03070
C          4.46290       -8.84580        2.36320
C          3.61460       -9.91600        2.64700
C          2.23170       -9.74140        2.59820
C          1.69710       -8.49660        2.26620
C          1.43310      -10.74860        2.86580
C          0.69600      -11.67860        3.11250
C         -0.19800      -12.80670        3.41150
C          4.72690       -6.59380        1.76360
C          5.46400       -5.66380        1.51740
C          6.35850       -4.53570        1.21840
H         -0.67383        8.36811       -2.22962
H         -5.48666        8.97490       -2.39921
H         -4.01064       10.83689       -2.89305
H          0.19080       13.49453       -2.59191
H         -0.13862       13.30375       -4.29724
H          1.19273       12.44272       -3.56293
H         -6.79954        4.67693       -0.25322
H         -5.79771        3.62505       -1.22428
H         -7.12913        4.48603       -1.95851
H          0.93571        4.61955       -1.22882
H          1.86646        2.45369       -0.65039
H         -2.01623        0.89546       -0.24124
H         -2.94626        3.06055       -0.81989
H         -1.86647       -2.45370        0.65114
H         -0.93643       -4.61882        1.22865
H          2.94575       -3.06064        0.81982
H          2.01561       -0.89491        0.24106
H          5.48616       -8.97490        2.39921
H          4.01014      -10.83689        2.89305
H          0.67384       -8.36742        2.23054
H         -0.63897      -12.66633        4.37625
H          0.36299      -13.71782        3.40491
H         -0.96870      -12.85701        2.67097
H          6.35130       -3.84787        2.03799
H          6.02188       -4.03865        0.33266
H          7.35323       -4.89968        1.06697
