86

C         -0.67010        6.94720        0.17030
C         -1.33870        5.78970        0.17030
C         -0.67010        4.63170        0.17030
C          0.66710        4.63170        0.17030
C          1.33520        5.78920        0.17030
C          0.66710        6.94720        0.17030
C          2.67240        5.78920        0.15860
C          3.34100        6.94720        0.15970
C          2.67240        8.10520        0.18100
C          1.33520        8.10520        0.18200
C         -1.33870        8.10520        0.18200
C         -2.67540        8.10520        0.19370
C         -3.34400        6.94720        0.14750
C         -2.67540        5.78970        0.15860
C         -1.33870        3.47370        0.15860
C         -0.67010        2.31570        0.15660
C          0.66660        2.31570        0.16580
C          1.33520        3.47370        0.15860
C         -1.33870        1.15820        0.13330
C         -0.67010        0.00030        0.13070
C          0.66660        0.00030        0.15150
C          1.33520        1.15770        0.16980
C         -1.33820       -1.15720        0.09620
C         -0.66960       -2.31520        0.09370
C          0.66660       -2.31570        0.12620
C          1.33520       -1.15770        0.14240
C         -1.33770       -3.47270        0.04750
C         -0.66910       -4.63070        0.04490
C          0.66710       -4.63120        0.08910
C          1.33520       -3.47370        0.13020
C          4.65380        6.94720        0.13940
C          5.86560        6.94770        0.12060
C          7.33530        6.94770        0.09770
C         -4.65580        6.94820        0.09060
C         -5.86660        6.94870        0.03780
C         -7.33530        6.94920       -0.02560
C         -1.33670       -5.78770       -0.01290
C         -0.66860       -6.94560       -0.01500
C          0.66760       -6.94610        0.04040
C          1.33520       -5.78920        0.08660
C          1.33570       -8.10410        0.03780
C          2.67180       -8.10520        0.09320
C          3.33940       -6.94770        0.13990
C          2.67130       -5.78970        0.14190
C         -2.67240       -5.78610       -0.08000
C         -3.33940       -6.94310       -0.13830
C         -2.67080       -8.10060       -0.15150
C         -1.33520       -8.10210       -0.08450
C          4.65170       -6.94870        0.18300
C          5.86300       -6.94920        0.22310
C          7.33220       -6.94970        0.27190
C         -4.65180       -6.94260       -0.18200
C         -5.86300       -6.94210       -0.22260
C         -7.33220       -6.94160       -0.27190
H          3.18834        4.89548        0.14872
H          3.18843        8.99878        0.19666
H          0.81906        8.99880        0.19180
H         -0.82271        8.99894        0.18200
H         -3.19134        8.99786        0.23834
H         -3.19131        4.89591        0.15814
H         -2.37067        3.47373        0.15111
H          2.36710        3.47355        0.14401
H         -2.37058        1.15841        0.11733
H          2.36706        1.15750        0.18701
H         -2.36990       -1.15697        0.07150
H          2.36719       -1.15774        0.14788
H         -2.36915       -3.47224        0.01386
H          2.36661       -3.47405        0.16500
H          7.69977        7.82176        0.59578
H          7.67621        6.94689       -0.91654
H          7.69979        6.07445        0.59719
H         -7.71391        7.81167        0.48204
H         -7.71286        6.06479        0.44363
H         -7.64813        6.97150       -1.04860
H          0.82034       -8.99709       -0.00696
H          3.18743       -8.99913        0.09991
H          3.18647       -4.89658        0.18610
H         -3.18790       -4.89210       -0.08677
H         -3.18535       -8.99303       -0.21340
H         -0.81931       -8.99590       -0.08645
H          7.67169       -6.08554        0.80376
H          7.72216       -6.93137       -0.72434
H          7.67216       -7.83255        0.77180
H         -7.70582       -6.07727        0.23627
H         -7.70534       -7.82427        0.20408
H         -7.65484       -6.92290       -1.29193
