24
XYZ file generated by gabedit : coordinates in Angstrom
C      -0.051764    0.937459    0.000000
B      -1.536832    0.107110    0.000000
B      -0.498507    0.122111   -1.443960
B      -0.498507    0.122111    1.443960
B       1.184545    0.174105   -0.891660
B       1.184545    0.174105    0.891660
B       1.517864   -1.304566    0.000000
B       0.473806   -1.341801    1.436970
B       0.473806   -1.341801   -1.436970
B      -1.213285   -1.380582    0.889139
B      -1.213285   -1.380582   -0.889139
C       0.028216   -2.128041    0.000000
H      -2.556641    0.715775    0.000000
H      -0.826216    0.752801   -2.393425
H      -0.826216    0.752801    2.393425
H       1.979743    0.830970   -1.480523
H       1.979743    0.830970    1.480523
H       2.544769   -1.900321    0.000000
H       0.806158   -1.961522    2.393632
H       0.806158   -1.961522   -2.393632
H      -2.015984   -2.028417    1.476871
H      -2.015984   -2.028417   -1.476871
H       0.057034   -3.215990    0.000000
S      -0.164139    2.734727    0.000000
