172
00000001
C      -0.771000   -1.250000   -0.037000
C      -1.498000   -0.058000   -0.013000
C      -0.825000    1.170000   -0.009000
C       0.573000    1.214000   -0.031000
C       1.290000    0.011000   -0.031000
C       0.618000   -1.215000   -0.025000
C      -1.427000   -2.516000   -0.134000
C      -1.918000   -3.603000   -0.271000
C      -2.488000   -4.932000   -0.477000
C       1.227000    2.490000   -0.107000
C       1.772000    3.556000   -0.211000
C       2.443000    4.848000   -0.376000
C       2.715000   -0.053000   -0.094000
C       3.905000   -0.133000   -0.222000
C       5.307000   -0.060000   -0.464000
C       5.845000    1.214000   -0.570000
C       7.172000    1.336000   -0.903000
C       7.971000    0.189000   -1.089000
C       7.486000   -1.141000   -0.885000
C       6.106000   -1.219000   -0.611000
S       9.598000    0.635000   -1.640000
C      10.547000   -0.659000   -0.925000
C       9.991000   -1.907000   -0.649000
C       8.480000   -2.355000   -0.868000
C      11.971000   -0.424000   -0.863000
C      12.909000   -1.426000   -0.511000
C      12.435000   -2.691000   -0.252000
C      11.030000   -2.821000   -0.520000
C       8.050000   -3.700000   -0.917000
C       6.506000   -4.305000   -0.802000
C       6.859000   -5.193000    0.443000
C       7.986000   -5.965000   -0.150000
C       8.775000   -5.090000   -0.880000
C       8.131000   -7.351000   -0.242000
C       9.054000   -7.902000   -1.150000
C       9.878000   -7.079000   -1.940000
C       9.715000   -5.711000   -1.728000
C      10.925000   -7.503000   -2.836000
C      11.844000   -6.599000   -3.409000
C      11.817000   -5.311000   -2.978000
C      10.843000   -5.039000   -2.039000
C       5.212000   -5.141000   -1.292000
C      13.266000   -3.928000   -0.203000
C      13.736000   -5.049000   -0.321000
C      14.188000   -6.426000   -0.675000
C      15.361000   -6.628000   -1.455000
C      15.766000   -7.891000   -1.894000
C      14.984000   -9.020000   -1.597000
C      13.788000   -8.874000   -0.876000
C      13.416000   -7.590000   -0.399000
C      12.962000  -10.064000   -0.762000
C      12.377000  -11.125000   -0.817000
C      11.740000  -12.444000   -0.984000
C      16.108000   -5.514000   -1.933000
C      16.704000   -4.607000   -2.462000
C      17.356000   -3.471000   -3.108000
H      -2.584000   -0.082000   -0.027000
H      -1.406000    2.090000   -0.007000
H       1.188000   -2.143000   -0.047000
H       5.236000    2.104000   -0.423000
H       7.587000    2.337000   -1.018000
H       5.602000   -2.166000   -0.486000
H      12.357000    0.548000   -1.176000
H      13.973000   -1.215000   -0.568000
H      11.050000   -3.081000   -1.608000
H       6.790000   -4.609000   -1.838000
H       6.065000   -5.832000    0.844000
H       7.186000   -4.559000    1.279000
H       7.487000   -8.014000    0.330000
H       9.189000   -8.978000   -1.206000
H      11.101000   -8.556000   -3.010000
H      12.678000   -6.909000   -4.025000
H      12.650000   -4.618000   -3.093000
H      11.298000   -4.857000   -1.054000
H       4.290000   -4.697000   -0.905000
H       5.221000   -6.194000   -0.950000
H       5.101000   -5.233000   -2.383000
H      16.665000   -8.020000   -2.486000
H      15.283000   -9.996000   -1.977000
H      12.474000   -7.492000    0.136000
C      -3.156000   -6.165000   -0.509000
B      -4.855000   -6.237000   -0.561000
B      -3.885000   -6.479000   -2.032000
B      -3.956000   -6.893000    0.826000
B      -2.370000   -7.262000   -1.549000
B      -2.414000   -7.518000    0.215000
B      -2.755000   -8.845000   -0.886000
B      -3.740000   -8.619000    0.574000
B      -3.669000   -8.207000   -2.269000
B      -5.253000   -7.823000    0.098000
B      -5.209000   -7.568000   -1.661000
C      -4.455000   -8.909000   -0.938000
H      -5.495000   -5.244000   -0.434000
H      -3.873000   -5.640000   -2.870000
H      -3.990000   -6.325000    1.867000
H      -1.351000   -6.952000   -2.074000
H      -1.424000   -7.376000    0.856000
H      -2.102000   -9.829000   -1.012000
H      -3.743000   -9.451000    1.421000
H      -3.626000   -8.766000   -3.316000
H      -6.274000   -8.122000    0.624000
H      -6.202000   -7.699000   -2.299000
H      -4.915000   -9.884000   -1.090000
C       2.981000    6.086000   -0.373000
B       4.540000    6.024000   -1.051000
B       3.168000    6.676000   -1.975000
B       4.306000    6.421000    0.667000
B       2.068000    7.454000   -0.823000
B       2.771000    7.297000    0.808000
B       2.914000    8.806000   -0.082000
B       4.299000    8.171000    0.830000
B       3.167000    8.424000   -1.799000
B       5.397000    7.379000   -0.317000
B       4.696000    7.536000   -1.944000
C       4.473000    8.736000   -0.761000
H       5.014000    4.978000   -1.355000
H       2.725000    6.053000   -2.882000
H       4.611000    5.631000    1.497000
H       0.894000    7.358000   -0.970000
H       2.061000    7.097000    1.739000
H       2.428000    9.845000    0.227000
H       4.735000    8.786000    1.747000
H       2.849000    9.208000   -2.632000
H       6.572000    7.464000   -0.173000
H       5.408000    7.724000   -2.875000
H       5.002000    9.677000   -0.898000
C      10.943000  -13.602000   -1.045000
B       9.242000  -13.599000   -1.083000
B      10.189000  -13.925000   -2.553000
B      10.124000  -14.257000    0.315000
B      11.671000  -14.762000   -2.061000
B      11.631000  -14.967000   -0.290000
B      11.222000  -16.307000   -1.352000
B      10.260000  -15.997000    0.109000
B      10.324000  -15.667000   -2.745000
B       8.780000  -15.147000   -0.377000
B       8.820000  -14.943000   -2.143000
C       9.520000  -16.296000   -1.389000
H       8.649000  -12.576000   -0.978000
H      10.231000  -13.110000   -3.414000
H      10.124000  -13.661000    1.340000
H      12.698000  -14.512000   -2.601000
H      12.632000  -14.852000    0.339000
H      11.828000  -17.323000   -1.456000
H      10.227000  -16.806000    0.978000
H      10.334000  -16.255000   -3.776000
H       7.751000  -15.386000    0.164000
H       7.817000  -15.046000   -2.770000
H       9.015000  -17.253000   -1.511000
C      18.058000   -2.194000   -4.102000
B      18.390000   -2.380000   -5.760000
B      17.117000   -1.270000   -5.202000
B      19.702000   -2.387000   -4.560000
B      17.632000   -0.609000   -3.640000
B      19.228000   -1.299000   -3.244000
B      19.097000    0.329000   -3.894000
B      20.373000   -0.765000   -4.470000
B      17.801000    0.347000   -5.109000
B      19.857000   -1.439000   -6.028000
B      18.265000   -0.751000   -6.423000
C      19.426000    0.136000   -5.553000
H      18.092000   -3.387000   -6.315000
H      15.978000   -1.550000   -5.376000
H      20.262000   -3.402000   -4.311000
H      16.833000   -0.440000   -2.778000
H      19.482000   -1.585000   -2.119000
H      19.389000    1.331000   -3.327000
H      21.514000   -0.493000   -4.285000
H      17.229000    1.359000   -5.350000
H      20.650000   -1.619000   -6.892000
H      18.007000   -0.476000   -7.549000
H      19.911000    0.963000   -6.068000
