26

C         -2.90226        0.00000       -0.57957
C         -2.18486        1.25590       -0.05287
C         -0.72274        1.25862       -0.53404
C         -0.01006        0.00000       -0.00743
C         -0.72274       -1.25862       -0.53404
C         -0.69216       -1.25590       -2.07300
C         -1.40631        0.00000       -2.60409
C         -2.86696        0.00000       -2.11843
C         -2.18486       -1.25590       -0.05287
C         -0.69216        1.25590       -2.07300
H         -3.91829        0.00000       -0.24405
H         -2.20721        1.25590        1.01690
H         -2.68116        2.12870       -0.42274
H         -0.22589        2.13227       -0.16691
H         -0.03241        0.00000        1.06233
H          1.00505        0.00000       -0.34573
H         -0.22589       -2.13227       -0.16691
H          0.32388       -1.25590       -2.40852
H         -1.19147       -2.12870       -2.43879
H         -1.38396        0.00000       -3.67386
H         -3.36380       -0.87365       -2.48556
H         -3.36188        0.87534       -2.48414
H         -2.68170       -2.12955       -0.41999
H         -2.20575       -1.25336        1.01692
H         -1.18900        2.12955       -2.44012
H          0.32433        1.25336       -2.40713
