60
9011073
C       0.741520    0.000000    3.550740
C       1.497300    1.212100    3.137200
C       2.638100    0.741520    2.352900
C       0.000000    3.550740    0.741520
C       1.212100    3.137200    1.497300
C       0.741520    2.352900    2.638100
C       1.497300   -1.212100    3.137200
C       2.638100   -0.741520    2.352900
C      -0.741520    0.000000    3.550740
C      -1.497300    1.212100    3.137200
C      -2.638100    0.741520    2.352900
C       3.550740    0.741520    0.000000
C       3.137200    1.497300    1.212100
C       2.352900    2.638100    0.741520
C      -1.212100    3.137200    1.497300
C      -0.741520    2.352900    2.638100
C      -1.497300   -1.212100    3.137200
C      -2.638100   -0.741520    2.352900
C       3.137200    1.497300   -1.212100
C       2.352900    2.638100   -0.741520
C       3.550740   -0.741520    0.000000
C       3.137200   -1.497300    1.212100
C       2.352900   -2.638100    0.741520
C      -3.550740    0.741520    0.000000
C      -3.137200    1.497300    1.212100
C      -2.352900    2.638100    0.741520
C      -3.550740   -0.741520    0.000000
C      -3.137200   -1.497300   -1.212100
C      -2.352900   -2.638100   -0.741520
C      -0.000000   -3.550740    0.741520
C      -1.212100   -3.137200    1.497300
C      -0.741520   -2.352900    2.638100
C       0.000000    3.550740   -0.741520
C      -1.212100    3.137200   -1.497300
C      -0.741520    2.352900   -2.638100
C      -3.137200   -1.497300    1.212100
C      -2.352900   -2.638100    0.741520
C      -3.137200    1.497300   -1.212100
C      -2.352900    2.638100   -0.741520
C       3.137200   -1.497300   -1.212100
C       2.352900   -2.638100   -0.741520
C       1.212100    3.137200   -1.497300
C       0.741520    2.352900   -2.638100
C       1.212100   -3.137200    1.497300
C       0.741520   -2.352900    2.638100
C      -0.000000   -3.550740   -0.741520
C       1.212100   -3.137200   -1.497300
C       0.741520   -2.352900   -2.638100
C       0.741520   -0.000000   -3.550740
C       1.497300    1.212100   -3.137200
C       2.638100    0.741520   -2.352900
C      -0.741520   -0.000000   -3.550740
C      -1.497300   -1.212100   -3.137200
C      -2.638100   -0.741520   -2.352900
C      -1.212100   -3.137200   -1.497300
C      -0.741520   -2.352900   -2.638100
C      -1.497300    1.212100   -3.137200
C      -2.638100    0.741520   -2.352900
C       1.497300   -1.212100   -3.137200
C       2.638100   -0.741520   -2.352900
